/*--------------------------------*- C++ -*----------------------------------*\
| =========                 |                                                 |
| \\      /  F ield         | OpenFOAM: The Open Source CFD Toolbox           |
|  \\    /   O peration     | Version:  2.0                                   |
|   \\  /    A nd           | Web:      http://www.OpenFOAM.org               |
|    \\/     M anipulation  |                                                 |
\*---------------------------------------------------------------------------*/
FoamFile
{
    version     2.0;
    format      ascii;
    class       dictionary;
    object      turbineArrayProperties;
}
// * * * * * * * * * * * * * * * * * * * * * * * * * * * * * * * * * * * * * //
 
globalProperties
{
    outputControl       "timeStep";
    outputInterval       1;
}
 
turbine0
{
    turbineType                      "DTU10MWALM";
    includeNacelle                    false;
    includeTower                      false;
    baseLocation                     (1000.0 1000.0 0.0);
    numBladePoints                    40;
    numNacellePoints                  10;
    numTowerPoints                    40;
    bladePointDistType               "uniform";
    nacellePointDistType             "uniform";
    towerPointDistType               "uniform";
    bladeSearchCellMethod            "disk";
    bladeActuatorPointInterpType     "integral";
    nacelleActuatorPointInterpType   "linear";
    towerActuatorPointInterpType     "linear";
    actuatorUpdateType               "oldPosition";
    bladeForceProjectionType         "uniformGaussian";
    nacelleForceProjectionType       "diskGaussian";
    towerForceProjectionType         "advanced";
    bladeForceProjectionDirection    "localVelocityAligned";
    bladeEpsilon                     (8.0 0.0 0.0); //(4.41 0.0 0.0);
    nacelleEpsilon                   (4.0 4.0 0.0);
    towerEpsilon                     (4.0 4.0 0.0);
    nacelleSampleDistance             1.0;
    towerSampleDistance               3.5;
    tipRootLossCorrType              "Glauert";
    rotationDir                      "cw";
    Azimuth                           0.0;
    RotSpeed                          7.2;
    TorqueGen                         0.0;
    Pitch                             0.0;
    NacYaw                          270.0;
    fluidDensity                      1.23;
}
