/*--------------------------------*- C++ -*----------------------------------*\ 
| =========                 |                                                 | 
| \\      /  F ield         | OpenFOAM: The Open Source CFD Toolbox           | 
|  \\    /   O peration     | Version:  1.6                                   | 
|   \\  /    A nd           | Web:      http://www.OpenFOAM.org               | 
|    \\/     M anipulation  |                                                 | 
\*---------------------------------------------------------------------------*/ 
FoamFile
{
    version     2.0;
    format      ascii;
    class       dictionary;
    object      airfoilProperties;
}
// * * * * * * * * * * * * * * * * * * * * * * * * * * * * * * * * * * * * * //

airfoilData
(
//   alpha   C_l    C_d
	( -1.80e+02	0.0000000000e+00	0.0000000000e+00 ) 
	( -1.75e+02	1.7360000000e-01	1.1420000000e-02 ) 
	( -1.70e+02	3.4200000000e-01	4.5230000000e-02 ) 
	( -1.65e+02	5.0000000000e-01	1.0050000000e-01 ) 
	( -1.60e+02	6.4280000000e-01	1.7550000000e-01 ) 
	( -1.55e+02	7.6600000000e-01	2.6792000000e-01 ) 
	( -1.50e+02	8.6600000000e-01	3.7500000000e-01 ) 
	( -1.45e+02	9.3970000000e-01	4.9350000000e-01 ) 
	( -1.40e+02	9.8480000000e-01	6.1973000000e-01 ) 
	( -1.35e+02	1.0000000000e+00	7.5000000000e-01 ) 
	( -1.30e+02	9.8480000000e-01	8.8027000000e-01 ) 
	( -1.25e+02	9.3970000000e-01	1.0065000000e+00 ) 
	( -1.20e+02	8.6600000000e-01	1.1250000000e+00 ) 
	( -1.15e+02	7.6600000000e-01	1.2320800000e+00 ) 
	( -1.10e+02	6.4280000000e-01	1.3245000000e+00 ) 
	( -1.05e+02	5.0000000000e-01	1.3995000000e+00 ) 
	( -1.00e+02	3.4200000000e-01	1.4547700000e+00 ) 
	( -9.50e+01	1.7360000000e-01	1.4885800000e+00 ) 
	( -9.00e+01	0.0000000000e+00	1.5000000000e+00 ) 
	( -8.50e+01	-1.7360000000e-01	1.4885800000e+00 ) 
	( -8.00e+01	-3.4200000000e-01	1.4547700000e+00 ) 
	( -7.50e+01	-5.0000000000e-01	1.3995000000e+00 ) 
	( -7.00e+01	-6.4280000000e-01	1.3245000000e+00 ) 
	( -6.50e+01	-7.6600000000e-01	1.2320800000e+00 ) 
	( -6.00e+01	-8.6600000000e-01	1.1250000000e+00 ) 
	( -5.50e+01	-9.3970000000e-01	1.0065000000e+00 ) 
	( -5.00e+01	-9.8480000000e-01	8.8027000000e-01 ) 
	( -4.50e+01	-1.0000000000e+00	7.5000000000e-01 ) 
	( -4.00e+01	-1.0316000000e+00	6.0946000000e-01 ) 
	( -3.90e+01	-1.0439000000e+00	5.8454000000e-01 ) 
	( -3.80e+01	-1.0462000000e+00	5.5165000000e-01 ) 
	( -3.70e+01	-1.0485000000e+00	5.2673000000e-01 ) 
	( -3.60e+01	-1.0508000000e+00	4.9373000000e-01 ) 
	( -3.50e+01	-1.0531000000e+00	4.6085000000e-01 ) 
	( -3.40e+01	-1.0554000000e+00	4.2785000000e-01 ) 
	( -3.30e+01	-1.0677000000e+00	3.8688000000e-01 ) 
	( -3.20e+01	-1.0726000000e+00	3.3470000000e-01 ) 
	( -3.00e+01	-1.0917000000e+00	2.8620000000e-01 ) 
	( -2.80e+01	-1.1008000000e+00	2.2770000000e-01 ) 
	( -2.60e+01	-1.1101000000e+00	1.7500000000e-01 ) 
	( -2.40e+01	-1.1294000000e+00	1.4230000000e-01 ) 
	( -2.20e+01	-1.1233000000e+00	1.1830000000e-01 ) 
	( -2.00e+01	-1.1171000000e+00	9.4400000000e-02 ) 
	( -1.80e+01	-1.0870000000e+00	7.7200000000e-02 ) 
	( -1.60e+01	-1.0569000000e+00	6.0100000000e-02 ) 
	( -1.40e+01	-1.0238000000e+00	4.6800000000e-02 ) 
	( -1.20e+01	-9.9080000000e-01	3.3500000000e-02 ) 
	( -1.00e+01	-8.5940000000e-01	2.4200000000e-02 ) 
	( -8.00e+00	-7.2790000000e-01	1.5000000000e-02 ) 
	( -6.00e+00	-4.6900000000e-01	1.2600000000e-02 ) 
	( -4.00e+00	-2.1010000000e-01	1.0300000000e-02 ) 
	( -2.00e+00	4.2800000000e-02	9.9000000000e-03 ) 
	( 0.00e+00	2.9560000000e-01	9.6000000000e-03 ) 
	( 2.00e+00	5.4350000000e-01	9.8000000000e-03 ) 
	( 4.00e+00	7.8670000000e-01	1.0300000000e-02 ) 
	( 6.00e+00	1.0228000000e+00	1.1200000000e-02 ) 
	( 8.00e+00	1.2474000000e+00	1.2600000000e-02 ) 
	( 1.00e+01	1.4575000000e+00	1.4600000000e-02 ) 
	( 1.20e+01	1.6422000000e+00	1.7500000000e-02 ) 
	( 1.40e+01	1.7824000000e+00	2.2700000000e-02 ) 
	( 1.60e+01	1.8167000000e+00	3.5700000000e-02 ) 
	( 1.80e+01	1.7763000000e+00	6.4900000000e-02 ) 
	( 2.00e+01	1.6608000000e+00	1.0150000000e-01 ) 
	( 2.20e+01	1.5659000000e+00	1.4110000000e-01 ) 
	( 2.40e+01	1.4786000000e+00	1.8090000000e-01 ) 
	( 2.60e+01	1.4098000000e+00	2.3550000000e-01 ) 
	( 2.80e+01	1.3403000000e+00	2.9980000000e-01 ) 
	( 3.00e+01	1.2959000000e+00	3.6400000000e-01 ) 
	( 3.20e+01	1.2412000000e+00	4.3800000000e-01 ) 
	( 3.30e+01	1.2108000000e+00	4.7515000000e-01 ) 
	( 3.40e+01	1.1825000000e+00	5.0827000000e-01 ) 
	( 3.50e+01	1.1640000000e+00	5.4104000000e-01 ) 
	( 3.60e+01	1.1352000000e+00	5.7369000000e-01 ) 
	( 3.70e+01	1.1165000000e+00	5.9804000000e-01 ) 
	( 3.80e+01	1.0977000000e+00	6.3046000000e-01 ) 
	( 3.90e+01	1.0788000000e+00	6.5446000000e-01 ) 
	( 4.00e+01	1.0597000000e+00	6.7846000000e-01 ) 
	( 4.50e+01	1.0043000000e+00	7.9604000000e-01 ) 
	( 5.00e+01	9.7560000000e-01	8.9596000000e-01 ) 
	( 5.50e+01	9.2080000000e-01	1.0104200000e+00 ) 
	( 6.00e+01	8.6600000000e-01	1.1250000000e+00 ) 
	( 6.50e+01	7.6600000000e-01	1.2320800000e+00 ) 
	( 7.00e+01	6.4280000000e-01	1.3245000000e+00 ) 
	( 7.50e+01	5.0000000000e-01	1.3995000000e+00 ) 
	( 8.00e+01	3.4200000000e-01	1.4547700000e+00 ) 
	( 8.50e+01	1.7360000000e-01	1.4885800000e+00 ) 
	( 9.00e+01	0.0000000000e+00	1.5000000000e+00 ) 
	( 9.50e+01	-1.7360000000e-01	1.4885800000e+00 ) 
	( 1.00e+02	-3.4200000000e-01	1.4547700000e+00 ) 
	( 1.05e+02	-5.0000000000e-01	1.3995000000e+00 ) 
	( 1.10e+02	-6.4280000000e-01	1.3245000000e+00 ) 
	( 1.15e+02	-7.6600000000e-01	1.2320800000e+00 ) 
	( 1.20e+02	-8.6600000000e-01	1.1250000000e+00 ) 
	( 1.25e+02	-9.3970000000e-01	1.0065000000e+00 ) 
	( 1.30e+02	-9.8480000000e-01	8.8027000000e-01 ) 
	( 1.35e+02	-1.0000000000e+00	7.5000000000e-01 ) 
	( 1.40e+02	-9.8480000000e-01	6.1973000000e-01 ) 
	( 1.45e+02	-9.3970000000e-01	4.9350000000e-01 ) 
	( 1.50e+02	-8.6600000000e-01	3.7500000000e-01 ) 
	( 1.55e+02	-7.6600000000e-01	2.6792000000e-01 ) 
	( 1.60e+02	-6.4280000000e-01	1.7550000000e-01 ) 
	( 1.65e+02	-5.0000000000e-01	1.0050000000e-01 ) 
	( 1.70e+02	-3.4200000000e-01	4.5230000000e-02 ) 
	( 1.75e+02	-1.7360000000e-01	1.1420000000e-02 ) 
	( 1.80e+02	0.0000000000e+00	0.0000000000e+00 ) 
);