/*--------------------------------*- C++ -*----------------------------------*\ 
| =========                 |                                                 | 
| \\      /  F ield         | OpenFOAM: The Open Source CFD Toolbox           | 
|  \\    /   O peration     | Version:  1.6                                   | 
|   \\  /    A nd           | Web:      http://www.OpenFOAM.org               | 
|    \\/     M anipulation  |                                                 | 
\*---------------------------------------------------------------------------*/ 
FoamFile
{
    version     2.0;
    format      ascii;
    class       dictionary;
    object      airfoilProperties;
}
// * * * * * * * * * * * * * * * * * * * * * * * * * * * * * * * * * * * * * //

airfoilData
(
//   alpha   C_l    C_d
	( -1.80e+02	0.0000000000e+00	0.0000000000e+00 ) 
	( -1.75e+02	1.7360000000e-01	1.1242667000e-02 ) 
	( -1.70e+02	3.4200000000e-01	4.4526500000e-02 ) 
	( -1.65e+02	5.0000000000e-01	9.8936667000e-02 ) 
	( -1.60e+02	6.4280000000e-01	1.7277000000e-01 ) 
	( -1.55e+02	7.6600000000e-01	2.6375266700e-01 ) 
	( -1.50e+02	8.6600000000e-01	3.6916666700e-01 ) 
	( -1.45e+02	9.3970000000e-01	4.8582333300e-01 ) 
	( -1.40e+02	9.8480000000e-01	6.1008983300e-01 ) 
	( -1.35e+02	1.0000000000e+00	7.3833333300e-01 ) 
	( -1.30e+02	9.8480000000e-01	8.6657683300e-01 ) 
	( -1.25e+02	9.3970000000e-01	9.9084333300e-01 ) 
	( -1.20e+02	8.6600000000e-01	1.1075000000e+00 ) 
	( -1.15e+02	7.6600000000e-01	1.2129140000e+00 ) 
	( -1.10e+02	6.4280000000e-01	1.3038966670e+00 ) 
	( -1.05e+02	5.0000000000e-01	1.3777300000e+00 ) 
	( -1.00e+02	3.4200000000e-01	1.4321401670e+00 ) 
	( -9.50e+01	1.7360000000e-01	1.4654240000e+00 ) 
	( -9.00e+01	0.0000000000e+00	1.4766666670e+00 ) 
	( -8.50e+01	-1.7360000000e-01	1.4654240000e+00 ) 
	( -8.00e+01	-3.4200000000e-01	1.4321401670e+00 ) 
	( -7.50e+01	-5.0000000000e-01	1.3777300000e+00 ) 
	( -7.00e+01	-6.4280000000e-01	1.3038966670e+00 ) 
	( -6.50e+01	-7.6600000000e-01	1.2129140000e+00 ) 
	( -6.00e+01	-8.6600000000e-01	1.1075000000e+00 ) 
	( -5.50e+01	-9.3970000000e-01	9.9084333300e-01 ) 
	( -5.00e+01	-9.8480000000e-01	8.6657683300e-01 ) 
	( -4.50e+01	-1.0000000000e+00	7.3833333300e-01 ) 
	( -4.00e+01	-1.0304333330e+00	6.0079633300e-01 ) 
	( -3.90e+01	-1.0415666670e+00	5.7544700000e-01 ) 
	( -3.80e+01	-1.0427000000e+00	5.4388583300e-01 ) 
	( -3.70e+01	-1.0450000000e+00	5.1853650000e-01 ) 
	( -3.60e+01	-1.0461333330e+00	4.8604983300e-01 ) 
	( -3.50e+01	-1.0472666670e+00	4.5368083300e-01 ) 
	( -3.40e+01	-1.0484000000e+00	4.2119416700e-01 ) 
	( -3.30e+01	-1.0583666670e+00	3.8086233300e-01 ) 
	( -3.20e+01	-1.0622050000e+00	3.3178333300e-01 ) 
	( -3.00e+01	-1.0775366670e+00	2.8387833300e-01 ) 
	( -2.80e+01	-1.0852133330e+00	2.2714000000e-01 ) 
	( -2.60e+01	-1.0907333330e+00	1.7722833300e-01 ) 
	( -2.40e+01	-1.1062533330e+00	1.4499500000e-01 ) 
	( -2.20e+01	-1.0977966670e+00	1.2103000000e-01 ) 
	( -2.00e+01	-1.0892516670e+00	9.7165000000e-02 ) 
	( -1.80e+01	-1.0588716670e+00	7.9696667000e-02 ) 
	( -1.60e+01	-1.0284916670e+00	6.2328333000e-02 ) 
	( -1.40e+01	-9.9451666700e-01	4.8841667000e-02 ) 
	( -1.20e+01	-9.6063000000e-01	3.5366667000e-02 ) 
	( -1.00e+01	-8.4004500000e-01	2.5821667000e-02 ) 
	( -8.00e+00	-7.1936000000e-01	1.6365000000e-02 ) 
	( -6.00e+00	-4.6686500000e-01	1.3510000000e-02 ) 
	( -4.00e+00	-2.1437000000e-01	1.0731667000e-02 ) 
	( -2.00e+00	4.1248333000e-02	1.0250000000e-02 ) 
	( 0.00e+00	2.9676666700e-01	9.8566670000e-03 ) 
	( 2.00e+00	5.4624166700e-01	1.0045000000e-02 ) 
	( 4.00e+00	7.9057333300e-01	1.0556667000e-02 ) 
	( 6.00e+00	1.0273033330e+00	1.1480000000e-02 ) 
	( 8.00e+00	1.2520666670e+00	1.2903333000e-02 ) 
	( 1.00e+01	1.4605916670e+00	1.4996667000e-02 ) 
	( 1.20e+01	1.6418033330e+00	1.8071667000e-02 ) 
	( 1.40e+01	1.7766016670e+00	2.3586667000e-02 ) 
	( 1.60e+01	1.8047416670e+00	3.7823333000e-02 ) 
	( 1.80e+01	1.7653916670e+00	6.8458333000e-02 ) 
	( 2.00e+01	1.6603216670e+00	1.0640000000e-01 ) 
	( 2.20e+01	1.5750583330e+00	1.5123833300e-01 ) 
	( 2.40e+01	1.4966016670e+00	1.9652166700e-01 ) 
	( 2.60e+01	1.4358750000e+00	2.5382833300e-01 ) 
	( 2.80e+01	1.3726400000e+00	3.1875833300e-01 ) 
	( 3.00e+01	1.3310866670e+00	3.8297000000e-01 ) 
	( 3.20e+01	1.2796533330e+00	4.5520833300e-01 ) 
	( 3.30e+01	1.2533833330e+00	4.9222416700e-01 ) 
	( 3.40e+01	1.2262033330e+00	5.2552850000e-01 ) 
	( 3.50e+01	1.2087416670e+00	5.5838366700e-01 ) 
	( 3.60e+01	1.1808866670e+00	5.9015283300e-01 ) 
	( 3.70e+01	1.1642633330e+00	6.1534866700e-01 ) 
	( 3.80e+01	1.1462566670e+00	6.4746300000e-01 ) 
	( 3.90e+01	1.1269833330e+00	6.7122966700e-01 ) 
	( 4.00e+01	1.1063550000e+00	6.9493800000e-01 ) 
	( 4.50e+01	1.0382266670e+00	8.0959200000e-01 ) 
	( 5.00e+01	9.9310000000e-01	9.0418966700e-01 ) 
	( 5.50e+01	9.2780000000e-01	1.0087026670e+00 ) 
	( 6.00e+01	8.6600000000e-01	1.1145000000e+00 ) 
	( 6.50e+01	7.6600000000e-01	1.2146640000e+00 ) 
	( 7.00e+01	6.4280000000e-01	1.3038966670e+00 ) 
	( 7.50e+01	5.0000000000e-01	1.3777300000e+00 ) 
	( 8.00e+01	3.4200000000e-01	1.4321401670e+00 ) 
	( 8.50e+01	1.7360000000e-01	1.4654240000e+00 ) 
	( 9.00e+01	0.0000000000e+00	1.4766666670e+00 ) 
	( 9.50e+01	-1.7360000000e-01	1.4654240000e+00 ) 
	( 1.00e+02	-3.4200000000e-01	1.4321401670e+00 ) 
	( 1.05e+02	-5.0000000000e-01	1.3777300000e+00 ) 
	( 1.10e+02	-6.4280000000e-01	1.3038966670e+00 ) 
	( 1.15e+02	-7.6600000000e-01	1.2129140000e+00 ) 
	( 1.20e+02	-8.6600000000e-01	1.1075000000e+00 ) 
	( 1.25e+02	-9.3970000000e-01	9.9084333300e-01 ) 
	( 1.30e+02	-9.8480000000e-01	8.6657683300e-01 ) 
	( 1.35e+02	-1.0000000000e+00	7.3833333300e-01 ) 
	( 1.40e+02	-9.8480000000e-01	6.1008983300e-01 ) 
	( 1.45e+02	-9.3970000000e-01	4.8582333300e-01 ) 
	( 1.50e+02	-8.6600000000e-01	3.6916666700e-01 ) 
	( 1.55e+02	-7.6600000000e-01	2.6375266700e-01 ) 
	( 1.60e+02	-6.4280000000e-01	1.7277000000e-01 ) 
	( 1.65e+02	-5.0000000000e-01	9.8936667000e-02 ) 
	( 1.70e+02	-3.4200000000e-01	4.4526500000e-02 ) 
	( 1.75e+02	-1.7360000000e-01	1.1242667000e-02 ) 
	( 1.80e+02	0.0000000000e+00	0.0000000000e+00 ) 
);