/*--------------------------------*- C++ -*----------------------------------*\
| =========                 |                                                 |
| \\      /  F ield         | OpenFOAM: The Open Source CFD Toolbox           |
|  \\    /   O peration     | Version:  1.6                                   |
|   \\  /    A nd           | Web:      http://www.OpenFOAM.org               |
|    \\/     M anipulation  |                                                 |
\*---------------------------------------------------------------------------*/
FoamFile
{
    version     2.0;
    format      ascii;
    class       dictionary;
    object      airfoilProperties;
}
// * * * * * * * * * * * * * * * * * * * * * * * * * * * * * * * * * * * * * //

airfoilData
(
//   alpha   C_l    C_d
	(	-1.800E+02	0.000E+00	0.000E+00	)
	(	-1.750E+02	1.736E-01	9.900E-03	)
	(	-1.700E+02	3.420E-01	3.920E-02	)
	(	-1.650E+02	5.000E-01	8.710E-02	)
	(	-1.600E+02	6.428E-01	1.521E-01	)
	(	-1.550E+02	7.660E-01	2.322E-01	)
	(	-1.500E+02	8.660E-01	3.250E-01	)
	(	-1.450E+02	9.397E-01	4.277E-01	)
	(	-1.400E+02	9.848E-01	5.371E-01	)
	(	-1.350E+02	1.000E+00	6.500E-01	)
	(	-1.300E+02	9.848E-01	7.629E-01	)
	(	-1.250E+02	9.397E-01	8.723E-01	)
	(	-1.200E+02	8.660E-01	9.750E-01	)
	(	-1.150E+02	7.660E-01	1.068E+00	)
	(	-1.100E+02	6.428E-01	1.148E+00	)
	(	-1.050E+02	5.000E-01	1.213E+00	)
	(	-1.000E+02	3.420E-01	1.261E+00	)
	(	-9.500E+01	1.736E-01	1.290E+00	)
	(	-9.000E+01	0.000E+00	1.300E+00	)
	(	-8.500E+01	-1.736E-01	1.290E+00	)
	(	-8.000E+01	-3.420E-01	1.261E+00	)
	(	-7.500E+01	-5.000E-01	1.213E+00	)
	(	-7.000E+01	-6.428E-01	1.148E+00	)
	(	-6.500E+01	-7.660E-01	1.068E+00	)
	(	-6.000E+01	-8.660E-01	9.750E-01	)
	(	-5.500E+01	-9.397E-01	8.723E-01	)
	(	-5.000E+01	-9.848E-01	7.629E-01	)
	(	-4.500E+01	-1.000E+00	6.500E-01	)
	(	-4.000E+01	-9.516E-01	5.282E-01	)
	(	-3.900E+01	-9.039E-01	5.026E-01	)
	(	-3.800E+01	-8.262E-01	4.671E-01	)
	(	-3.700E+01	-7.185E-01	4.345E-01	)
	(	-3.600E+01	-6.208E-01	3.989E-01	)
	(	-3.500E+01	-5.231E-01	3.634E-01	)
	(	-3.400E+01	-4.454E-01	3.278E-01	)
	(	-3.300E+01	-3.477E-01	3.013E-01	)
	(	-3.200E+01	-2.571E-01	2.729E-01	)
	(	-3.000E+01	-1.574E-01	2.332E-01	)
	(	-2.800E+01	-7.760E-02	2.034E-01	)
	(	-2.600E+01	1.150E-02	1.858E-01	)
	(	-2.400E+01	1.007E-01	1.681E-01	)
	(	-2.200E+01	1.962E-01	1.526E-01	)
	(	-2.000E+01	2.918E-01	1.370E-01	)
	(	-1.800E+01	3.932E-01	1.240E-01	)
	(	-1.600E+01	4.947E-01	1.109E-01	)
	(	-1.400E+01	6.004E-01	1.009E-01	)
	(	-1.200E+01	7.061E-01	9.080E-02	)
	(	-1.000E+01	7.880E-01	8.360E-02	)
	(	-8.000E+00	8.700E-01	7.650E-02	)
	(	-6.000E+00	8.358E-01	7.480E-02	)
	(	-4.000E+00	8.162E-01	7.311E-02	)
	(	-2.000E+00	6.603E-01	7.553E-02	)
	(	0.000E+00	5.199E-01	7.795E-02	)
	(	2.000E+00	2.636E-01	7.795E-02	)
	(	4.000E+00	-9.060E-02	7.082E-02	)
	(	6.000E+00	1.656E-01	7.483E-02	)
	(	8.000E+00	4.475E-01	8.587E-02	)
	(	1.000E+01	7.071E-01	9.990E-02	)
	(	1.200E+01	9.540E-01	1.115E-01	)
	(	1.400E+01	1.189E+00	1.207E-01	)
	(	1.600E+01	1.418E+00	1.368E-01	)
	(	1.800E+01	1.639E+00	1.500E-01	)
	(	2.000E+01	1.822E+00	1.689E-01	)
	(	2.200E+01	1.984E+00	2.066E-01	)
	(	2.400E+01	2.099E+00	3.092E-01	)
	(	2.600E+01	2.190E+00	4.344E-01	)
	(	2.800E+01	2.254E+00	5.512E-01	)
	(	3.000E+01	2.273E+00	6.732E-01	)
	(	3.200E+01	2.274E+00	7.756E-01	)
	(	3.300E+01	2.278E+00	8.209E-01	)
	(	3.400E+01	2.266E+00	8.551E-01	)
	(	3.500E+01	2.241E+00	8.862E-01	)
	(	3.600E+01	2.233E+00	9.141E-01	)
	(	3.700E+01	2.213E+00	9.390E-01	)
	(	3.800E+01	2.182E+00	9.709E-01	)
	(	3.900E+01	2.139E+00	9.996E-01	)
	(	4.000E+01	2.095E+00	1.025E+00	)
	(	4.500E+01	1.837E+00	1.142E+00	)
	(	5.000E+01	1.516E+00	1.161E+00	)
	(	5.500E+01	1.201E+00	1.166E+00	)
	(	6.000E+01	9.660E-01	1.175E+00	)
	(	6.500E+01	7.660E-01	1.178E+00	)
	(	7.000E+01	6.428E-01	1.198E+00	)
	(	7.500E+01	5.000E-01	1.213E+00	)
	(	8.000E+01	3.420E-01	1.261E+00	)
	(	8.500E+01	1.736E-01	1.290E+00	)
	(	9.000E+01	0.000E+00	1.300E+00	)
	(	9.500E+01	-1.736E-01	1.290E+00	)
	(	1.000E+02	-3.420E-01	1.261E+00	)
	(	1.050E+02	-5.000E-01	1.213E+00	)
	(	1.100E+02	-6.428E-01	1.148E+00	)
	(	1.150E+02	-7.660E-01	1.068E+00	)
	(	1.200E+02	-8.660E-01	9.750E-01	)
	(	1.250E+02	-9.397E-01	8.723E-01	)
	(	1.300E+02	-9.848E-01	7.629E-01	)
	(	1.350E+02	-1.000E+00	6.500E-01	)
	(	1.400E+02	-9.848E-01	5.371E-01	)
	(	1.450E+02	-9.397E-01	4.277E-01	)
	(	1.500E+02	-8.660E-01	3.250E-01	)
	(	1.550E+02	-7.660E-01	2.322E-01	)
	(	1.600E+02	-6.428E-01	1.521E-01	)
	(	1.650E+02	-5.000E-01	8.710E-02	)
	(	1.700E+02	-3.420E-01	3.920E-02	)
	(	1.750E+02	-1.736E-01	9.900E-03	)
	(	1.800E+02	0.000E+00	0.000E+00	)
);