/*--------------------------------*- C++ -*----------------------------------*\ 
| =========                 |                                                 | 
| \\      /  F ield         | OpenFOAM: The Open Source CFD Toolbox           | 
|  \\    /   O peration     | Version:  1.6                                   | 
|   \\  /    A nd           | Web:      http://www.OpenFOAM.org               | 
|    \\/     M anipulation  |                                                 | 
\*---------------------------------------------------------------------------*/ 
FoamFile
{
    version     2.0;
    format      ascii;
    class       dictionary;
    object      airfoilProperties;
}
// * * * * * * * * * * * * * * * * * * * * * * * * * * * * * * * * * * * * * //

airfoilData
(
//   alpha   C_l    C_d
	( -1.80e+02	0.0000000000e+00	0.0000000000e+00 ) 
	( -1.75e+02	1.7360000000e-01	1.0948800000e-02 ) 
	( -1.70e+02	3.4200000000e-01	4.3360700000e-02 ) 
	( -1.65e+02	5.0000000000e-01	9.6346000000e-02 ) 
	( -1.60e+02	6.4280000000e-01	1.6824600000e-01 ) 
	( -1.55e+02	7.6600000000e-01	2.5684680000e-01 ) 
	( -1.50e+02	8.6600000000e-01	3.5950000000e-01 ) 
	( -1.45e+02	9.3970000000e-01	4.7310200000e-01 ) 
	( -1.40e+02	9.8480000000e-01	5.9411470000e-01 ) 
	( -1.35e+02	1.0000000000e+00	7.1900000000e-01 ) 
	( -1.30e+02	9.8480000000e-01	8.4388530000e-01 ) 
	( -1.25e+02	9.3970000000e-01	9.6489800000e-01 ) 
	( -1.20e+02	8.6600000000e-01	1.0785000000e+00 ) 
	( -1.15e+02	7.6600000000e-01	1.1811532000e+00 ) 
	( -1.10e+02	6.4280000000e-01	1.2697540000e+00 ) 
	( -1.05e+02	5.0000000000e-01	1.3416540000e+00 ) 
	( -1.00e+02	3.4200000000e-01	1.3946393000e+00 ) 
	( -9.50e+01	1.7360000000e-01	1.4270512000e+00 ) 
	( -9.00e+01	0.0000000000e+00	1.4380000000e+00 ) 
	( -8.50e+01	-1.7360000000e-01	1.4270512000e+00 ) 
	( -8.00e+01	-3.4200000000e-01	1.3946393000e+00 ) 
	( -7.50e+01	-5.0000000000e-01	1.3416540000e+00 ) 
	( -7.00e+01	-6.4280000000e-01	1.2697540000e+00 ) 
	( -6.50e+01	-7.6600000000e-01	1.1811532000e+00 ) 
	( -6.00e+01	-8.6600000000e-01	1.0785000000e+00 ) 
	( -5.50e+01	-9.3970000000e-01	9.6489800000e-01 ) 
	( -5.00e+01	-9.8480000000e-01	8.4388530000e-01 ) 
	( -4.50e+01	-1.0000000000e+00	7.1900000000e-01 ) 
	( -4.00e+01	-1.0285000000e+00	5.8643940000e-01 ) 
	( -3.90e+01	-1.0377000000e+00	5.6037860000e-01 ) 
	( -3.80e+01	-1.0369000000e+00	5.3101950000e-01 ) 
	( -3.70e+01	-1.0392000000e+00	5.0495870000e-01 ) 
	( -3.60e+01	-1.0384000000e+00	4.7332270000e-01 ) 
	( -3.50e+01	-1.0376000000e+00	4.4180050000e-01 ) 
	( -3.40e+01	-1.0368000000e+00	4.1016450000e-01 ) 
	( -3.30e+01	-1.0429000000e+00	3.7089020000e-01 ) 
	( -3.20e+01	-1.0449790000e+00	3.2695000000e-01 ) 
	( -3.00e+01	-1.0540660000e+00	2.8003100000e-01 ) 
	( -2.80e+01	-1.0593840000e+00	2.2621200000e-01 ) 
	( -2.60e+01	-1.0586400000e+00	1.8092100000e-01 ) 
	( -2.40e+01	-1.0678960000e+00	1.4946100000e-01 ) 
	( -2.20e+01	-1.0555340000e+00	1.2555400000e-01 ) 
	( -2.00e+01	-1.0431030000e+00	1.0174700000e-01 ) 
	( -1.80e+01	-1.0122590000e+00	8.3834000000e-02 ) 
	( -1.60e+01	-9.8141500000e-01	6.6021000000e-02 ) 
	( -1.40e+01	-9.4599000000e-01	5.2225000000e-02 ) 
	( -1.20e+01	-9.1063400000e-01	3.8460000000e-02 ) 
	( -1.00e+01	-8.0797100000e-01	2.8509000000e-02 ) 
	( -8.00e+00	-7.0520800000e-01	1.8627000000e-02 ) 
	( -6.00e+00	-4.6332700000e-01	1.5018000000e-02 ) 
	( -4.00e+00	-2.2144600000e-01	1.1447000000e-02 ) 
	( -2.00e+00	3.8677000000e-02	1.0830000000e-02 ) 
	( 0.00e+00	2.9870000000e-01	1.0282000000e-02 ) 
	( 2.00e+00	5.5078500000e-01	1.0451000000e-02 ) 
	( 4.00e+00	7.9699200000e-01	1.0982000000e-02 ) 
	( 6.00e+00	1.0347660000e+00	1.1944000000e-02 ) 
	( 8.00e+00	1.2598000000e+00	1.3406000000e-02 ) 
	( 1.00e+01	1.4657150000e+00	1.5654000000e-02 ) 
	( 1.20e+01	1.6411460000e+00	1.9019000000e-02 ) 
	( 1.40e+01	1.7669930000e+00	2.5056000000e-02 ) 
	( 1.60e+01	1.7849250000e+00	4.1342000000e-02 ) 
	( 1.80e+01	1.7473150000e+00	7.4355000000e-02 ) 
	( 2.00e+01	1.6595290000e+00	1.1452000000e-01 ) 
	( 2.20e+01	1.5902350000e+00	1.6803900000e-01 ) 
	( 2.40e+01	1.5264330000e+00	2.2240900000e-01 ) 
	( 2.60e+01	1.4790850000e+00	2.8420100000e-01 ) 
	( 2.80e+01	1.4262320000e+00	3.5017500000e-01 ) 
	( 3.00e+01	1.3893960000e+00	4.1440600000e-01 ) 
	( 3.20e+01	1.3433760000e+00	4.8372500000e-01 ) 
	( 3.30e+01	1.3239500000e+00	5.2051850000e-01 ) 
	( 3.40e+01	1.2986260000e+00	5.5412830000e-01 ) 
	( 3.50e+01	1.2828850000e+00	5.8712460000e-01 ) 
	( 3.60e+01	1.2565960000e+00	6.1743410000e-01 ) 
	( 3.70e+01	1.2434140000e+00	6.4403160000e-01 ) 
	( 3.80e+01	1.2267220000e+00	6.7563940000e-01 ) 
	( 3.90e+01	1.2068300000e+00	6.9901940000e-01 ) 
	( 4.00e+01	1.1836690000e+00	7.2224440000e-01 ) 
	( 4.50e+01	1.0944480000e+00	8.3204960000e-01 ) 
	( 5.00e+01	1.0221000000e+00	9.1782740000e-01 ) 
	( 5.50e+01	9.3940000000e-01	1.0058568000e+00 ) 
	( 6.00e+01	8.6600000000e-01	1.0971000000e+00 ) 
	( 6.50e+01	7.6600000000e-01	1.1858032000e+00 ) 
	( 7.00e+01	6.4280000000e-01	1.2697540000e+00 ) 
	( 7.50e+01	5.0000000000e-01	1.3416540000e+00 ) 
	( 8.00e+01	3.4200000000e-01	1.3946393000e+00 ) 
	( 8.50e+01	1.7360000000e-01	1.4270512000e+00 ) 
	( 9.00e+01	0.0000000000e+00	1.4380000000e+00 ) 
	( 9.50e+01	-1.7360000000e-01	1.4270512000e+00 ) 
	( 1.00e+02	-3.4200000000e-01	1.3946393000e+00 ) 
	( 1.05e+02	-5.0000000000e-01	1.3416540000e+00 ) 
	( 1.10e+02	-6.4280000000e-01	1.2697540000e+00 ) 
	( 1.15e+02	-7.6600000000e-01	1.1811532000e+00 ) 
	( 1.20e+02	-8.6600000000e-01	1.0785000000e+00 ) 
	( 1.25e+02	-9.3970000000e-01	9.6489800000e-01 ) 
	( 1.30e+02	-9.8480000000e-01	8.4388530000e-01 ) 
	( 1.35e+02	-1.0000000000e+00	7.1900000000e-01 ) 
	( 1.40e+02	-9.8480000000e-01	5.9411470000e-01 ) 
	( 1.45e+02	-9.3970000000e-01	4.7310200000e-01 ) 
	( 1.50e+02	-8.6600000000e-01	3.5950000000e-01 ) 
	( 1.55e+02	-7.6600000000e-01	2.5684680000e-01 ) 
	( 1.60e+02	-6.4280000000e-01	1.6824600000e-01 ) 
	( 1.65e+02	-5.0000000000e-01	9.6346000000e-02 ) 
	( 1.70e+02	-3.4200000000e-01	4.3360700000e-02 ) 
	( 1.75e+02	-1.7360000000e-01	1.0948800000e-02 ) 
	( 1.80e+02	0.0000000000e+00	0.0000000000e+00 ) 
);